#Put Keywords Here, check Charge and Multiplicity.

 for select active atoms

0  1
C           1.00006         0.34776        -0.20592
C           2.32481         0.18337        -0.08368
C           2.94279        -0.91365         0.73202
O           4.35555        -0.80180         0.64886
C           5.17147        -1.68538         1.30586
C           4.86792        -2.74124         2.09097
C           3.58886        -3.36057         2.55149
C           6.63017        -1.37373         1.07413
H           0.59091         1.15445        -0.80575
H           0.29821        -0.31730         0.28860
H           2.99745         0.86863        -0.59322
H           2.62931        -1.87623         0.31470
H           2.62931        -0.79114         1.77400
H           5.72503        -3.28530         2.49552
H           2.67814        -2.88573         2.19841
H           3.55551        -3.34987         3.64583
H           3.55551        -4.40550         2.22616
H           6.75384        -0.50044         0.42478
H           7.13347        -2.21816         0.59111
H           7.13347        -1.15429         2.02188

